$# LS-DYNA Keyword file created by LS-PrePost(R) V4.8.17 - 24Jun2021
$# Created on Feb-14-2025 (14:51:05)
*KEYWORD  
*CONTROL_ENERGY
$#    hgen      rwen    slnten     rylen     irgen     
         2         2         2         2         2
*CONTROL_OUTPUT
$#   npopt    neecho    nrefup    iaccop     opifs    ipnint    ikedit    iflush
         1         3         0         0       0.0         0       100      5000
$#   iprtf    ierode   tet10s8    msgmax    ipcurv      gmdt   ip1dblt      eocs
         3         0         2        50         0       0.0         0         0
$#   tolev    newleg    frfreq     minfo    solsig    msgflg    cdetol      
         2         0         1         0         0         0      10.0
$# phschng    demden   icrfile   spc2bnd    penout    shlsig   hisnout    engout
         0         0         0         0         0         0         0         0
$#    insf    isolsf      ibsf      issf    mlkbag      
         0         0         0         0         0
*CONTROL_SOLUTION
$#    soln       nlq     isnan     lcint     lcacc     ncdcf     nocop     
         0         0         0       100         0         1         0
*CONTROL_TERMINATION
$#  endtim    endcyc     dtmin    endeng    endmas     nosol     
     600.0         0       0.0       0.01.000000E8         0
*CONTROL_TIMESTEP
$#  dtinit    tssfac      isdo    tslimt     dt2ms      lctm     erode     ms1st
      0.01       0.0         0       0.0       0.0         0         0         0
$#  dt2msf   dt2mslc     imscl    unused    unused     rmscl    unused      ihdo
       0.0         0         0                           0.0                   0
*DATABASE_ELOUT
$#      dt    binary      lcur     ioopt   option1   option2   option3   option4
      0.05         0         0         1         0         0         0         0
*DATABASE_GLSTAT
$#      dt    binary      lcur     ioopt     
      0.05         0         0         1
*DATABASE_MATSUM
$#      dt    binary      lcur     ioopt     
       0.0         0         0         1
*DATABASE_NODFOR
$#      dt    binary      lcur     ioopt     
      0.05         3         0         1
*DATABASE_NODOUT
$#      dt    binary      lcur     ioopt   option1   option2       
      0.05         3         0         1       0.0         0
*DATABASE_SPCFORC
$#      dt    binary      lcur     ioopt     
      0.05         3         0         1
*DATABASE_BINARY_D3PLOT
$#      dt      lcdt      beam     npltc    psetid      
      0.05         0         0         0         0
$#   ioopt      rate    cutoff    window      type      pset    
         0       0.0       0.0       0.0         0         0
*DATABASE_NODAL_FORCE_GROUP
$#    nsid       cid   
         1         0
*DATABASE_HISTORY_NODE_SET
$#     id1       id2       id3       id4       id5       id6       id7       id8
         3         0         0         0         0         0         0         0
*BOUNDARY_PRESCRIBED_MOTION_RIGID_ID
$#      id                                                               heading
         0Load -Z direction
$#     pid       dof       vad      lcid        sf       vid     death     birth
         2         3         2         1      -1.0         01.00000E28       0.0
*BOUNDARY_SPC_SET_ID
$#      id                                                               heading
         0UZ Free
$#    nsid       cid      dofx      dofy      dofz     dofrx     dofry     dofrz
         2         0         1         1         0         1         1         1
*SET_NODE_LIST_TITLE
NODESET(SPC) 2
$#     sid       da1       da2       da3       da4    solver      
         2       0.0       0.0       0.0       0.0MECH
$#    nid1      nid2      nid3      nid4      nid5      nid6      nid7      nid8
     19722     19723     19724     19725     19726     19727     19728     19729
     19730     19731     19732     19733     19734     19735     19736     19737
     19738     19739     19740     19741     19742     19743     19744     19745
     19746     19747     19748     19749     19750     19751     19752     19753
     19754     19755     19756     19757     19758     19759     19760     19761
     19762     19763     19764     19765     19766     19767     19768     19769
     19770     19771     19772     19773     19774     19775     19776     19777
     19778     19779     19780     19781     19782     19783     19784     19785
     19786     19787     19788     19789     19790     19791     19792     19793
     19794     19795     19796     19797     19798     19799     19800     19801
     19802     19803     19804     19805     19806     19807     19808     19809
     19810     19811     19812     19813     19814     19815     19816     19817
     19818     19819     19820     19821     19822     19823     19824     19825
     19826     19827     19828     19829     19830     19831     19832     19833
     19834     19835     19836     19837     19838     19839     19840     19841
     19842     19843     19844     19845     19846     19847     19848     19849
     19850     19851     19852     19853     19854     19855     19856     19857
     19858     19859     19860     19861     19862     19863     19864     19865
     19866     19867     19868     19869     19870     19871     19872     19873
     19874     19875     19876     19877     19878     19879     19880     19881
$ ... 91 like lines cut
*BOUNDARY_SPC_SET_ID
$#      id                                                               heading
         0Fixed support
$#    nsid       cid      dofx      dofy      dofz     dofrx     dofry     dofrz
         1         0         1         1         1         1         1         1
*SET_NODE_LIST_TITLE
NODESET(SPC) 1
$#     sid       da1       da2       da3       da4    solver      
         1       0.0       0.0       0.0       0.0MECH
$#    nid1      nid2      nid3      nid4      nid5      nid6      nid7      nid8
     20604     20605     20606     20607     20608     20609     20610     20611
     20612     20613     20614     20615     20616     20617     20618     20619
     20620     20621     20622     20623     20624     20625     20626     20627
     20628     20629     20630     20631     20632     20633     20634     20635
     20636     20637     20638     20639     20640     20641     20642     20643
     20644     20645     20646     20647     20648     20649     20650     20651
     20652     20653     20654     20655     20656     20657     20658     20659
     20660     20661     20662     20663     20664     20665     20666     20667
     20668     20669     20670     20671     20672     20673     20674     20675
     20676     20677     20678     20679     20680     20681     20682     20683
     20684     20685     20686     20687     20688     20689     20690     20691
     20692     20693     20694     20695     20696     20697     20698     20699
     20700     20701     20702     20703     20704     20705     20706     20707
     20708     20709     20710     20711     20712     20713     20714     20715
     20716     20717     20718     20719     20720     20721     20722     20723
     20724     20725     20726     20727     20728     20729     20730     20731
     20732     20733     20734     20735     20736     20737     20738     20739
     20740     20741     20742     20743     20744     20745     20746     20747
     20748     20749     20750     20751     20752     20753     20754     20755
     20756     20757     20758     20759     20760     20761     20762     20763
$ ... 36 like lines cut
*CONTACT_AUTOMATIC_SURFACE_TO_SURFACE_ID
$#     cid                                                                 title
         1cylinder vs loading plate
$#    ssid      msid     sstyp     mstyp    sboxid    mboxid       spr       mpr
         1         2         3         3         0         0         0         0
$#      fs        fd        dc        vc       vdc    penchk        bt        dt
       0.3       0.3       0.0       0.0       0.0         0       0.01.00000E20
$#     sfs       sfm       sst       mst      sfst      sfmt       fsf       vsf
       1.0       1.0       0.0       0.0       1.0       1.0       1.0       1.0
*CONTACT_AUTOMATIC_SURFACE_TO_SURFACE_ID
$#     cid                                                                 title
         2cylinder vs base plate
$#    ssid      msid     sstyp     mstyp    sboxid    mboxid       spr       mpr
         1         3         3         3         0         0         0         0
$#      fs        fd        dc        vc       vdc    penchk        bt        dt
       0.3       0.3       0.0       0.0       0.0         0       0.01.00000E20
$#     sfs       sfm       sst       mst      sfst      sfmt       fsf       vsf
       1.0       1.0       0.0       0.0       1.0       1.0       1.0       1.0
*PART
$#                                                                         title
cylindersolid
$#     pid     secid       mid     eosid      hgid      grav    adpopt      tmid
         1         1       100         0         0         0         0         0
*SECTION_SOLID_TITLE
SOLID
$#   secid    elform       aet    unused    unused    unused    cohoff    unused
         1         1         0                                       0          
*PART
$#                                                                         title
loading plate
$#     pid     secid       mid     eosid      hgid      grav    adpopt      tmid
         2         1         2         0         0         0         0         0
*MAT_RIGID_TITLE
loading plate rigid
$#     mid        ro         e        pr         n    couple         m     alias
         2   0.00785  200000.0       0.3       0.0       0.0       0.0          
$#     cmo      con1      con2    
       0.0         0         0
$#lco or a1        a2        a3        v1        v2        v3  
       0.0       0.0       0.0       0.0       0.0       0.0
*PART
$#                                                                         title
base plate
$#     pid     secid       mid     eosid      hgid      grav    adpopt      tmid
         3         1         1         0         0         0         0         0
*MAT_ELASTIC_TITLE
base plate elastic
$#     mid        ro         e        pr        da        db  not used        
         1   0.00785  200000.0       0.3       0.0       0.0       0.0
*DEFINE_CURVE_TITLE
load curve 0.01 mm/s
$#    lcid      sidr       sfa       sfo      offa      offo    dattyp     lcint
         1         0       1.0       1.0       0.0       0.0         0         0
$#                a1                  o1  
                 0.0                 0.0
               600.0                 6.0
*ELEMENT_SOLID
$#   eid     pid      n1      n2      n3      n4      n5      n6      n7      n8
       1       1       1      12      13       2     482     493     494     483
       2       1       2      13      14       3     483     494     495     484
       3       1       3      14      15       4     484     495     496     485
       4       1       4      15      16       5     485     496     497     486
       5       1       5      16      17       6     486     497     498     487
       6       1       6      17      18       7     487     498     499     488
       7       1       7      18      19       8     488     499     500     489
       8       1       8      19      20       9     489     500     501     490
       9       1       9      20      21      10     490     501     502     491
      10       1      10      21      22      11     491     502     503     492
      11       1      12      23      24      13     493     504     505     494
      12       1      13      24      25      14     494     505     506     495
      13       1      14      25      26      15     495     506     507     496
      14       1      15      26      27      16     496     507     508     497
      15       1      16      27      28      17     497     508     509     498
      16       1      17      28      29      18     498     509     510     499
      17       1      18      29      30      19     499     510     511     500
      18       1      19      30      31      20     500     511     512     501
      19       1      20      31      32      21     501     512     513     502
      20       1      21      32      33      22     502     513     514     503
$ ... 19180 like lines cut
*NODE
$#   nid               x               y               z      tc      rc  
       1         26.5165         26.5165             0.0       0       0
       2         21.2132         26.5165             0.0       0       0
       3         15.9099         26.5165             0.0       0       0
       4         10.6066         26.5165             0.0       0       0
       5        5.303301         26.5165             0.0       0       0
       6             0.0         26.5165             0.0       0       0
       7       -5.303301         26.5165             0.0       0       0
       8        -10.6066         26.5165             0.0       0       0
       9        -15.9099         26.5165             0.0       0       0
      10        -21.2132         26.5165             0.0       0       0
      11        -26.5165         26.5165             0.0       0       0
      12        29.46278        29.46278             0.0       0       0
      13        23.75439        30.31203             0.0       0       0
      14        17.92539        30.99528             0.0       0       0
      15        12.00323         31.4957             0.0       0       0
      16        6.017666        31.80096             0.0       0       0
      17             0.0        31.90356             0.0       0       0
      18       -6.017666        31.80096             0.0       0       0
      19       -12.00323         31.4957             0.0       0       0
      20       -17.92539        30.99528             0.0       0       0
$ ... 21465 like lines cut
*INCLUDE
$#                                                                      filename
MAT_CSCM.k
*SET_NODE_LIST_TITLE
disp track
$#     sid       da1       da2       da3       da4    solver      
         3       0.0       0.0       0.0       0.0MECH
$#    nid1      nid2      nid3      nid4      nid5      nid6      nid7      nid8
     20383         0         0         0         0         0         0         0
*END
